LAMMPS (20 Nov 2019)

# --------------------------------------------------------------------------------------------------
# rutile TiO2

# --------------------------------------------------------------------------------------------------
# define simulation domain
# --------------------------------------------------------------------------------------------------

units           metal
dimension       3
newton          on
boundary        p p p
atom_style      charge

comm_modify     cutoff 48
neighbor        1.0 bin
neigh_modify    every 100 delay 100 check yes

# --------------------------------------------------------------------------------------------------
# define simulation paramters
# --------------------------------------------------------------------------------------------------

variable        dt          equal 0.001         # timestep
variable        dt_dump     equal 16            # how often to write pos to file: ~32 THz = ~132 meV

variable	t_sim       equal 600

variable        seed        equal 864215

variable        therm_run   equal 5000   # thermalize at T
variable        sqw_run     equal 32000

variable        trj_dump    equal 500
variable        thermo_dump equal 500

# --------------------------------------------------------------------------------------------------
# define crystal
# --------------------------------------------------------------------------------------------------

read_data      rutile_12x12x16.supercell
  orthogonal box = (0 0 0) to (55.116 55.116 47.344)
  reading atoms ...
  13824 atoms

# --------------------------------------------------------------------------------------------------
# define potential
# --------------------------------------------------------------------------------------------------

# params from https://doi.org/10.1080/08927029108022432

pair_style      buck/coul/long 10.0 # cutoff Buckingham at 10 A, use Ewald for Coulomb (not cut off)

pair_coeff      1 1     31120.43 0.154  5.2469
pair_coeff      1 2     16957.67 0.194 12.5926
pair_coeff      2 2     11782.85 0.234 30.2222

kspace_style    pppm 1.0e-5

# --------------------------------------------------------------------------------------------------
# set some more params
# --------------------------------------------------------------------------------------------------

timestep        0.001
reset_timestep  0

thermo          500
thermo_style    custom step etotal temp pe press pxx pyy pzz fmax lx ly lz

dump            TRJ all custom 500 sim.lammpstrj id type x y z
dump_modify     TRJ sort id

# --------------------------------------------------------------------------------------------------
# thermalize
# --------------------------------------------------------------------------------------------------

velocity        all create 600 864215 mom yes rot yes dist gaussian

fix             THERM all npt temp 600 600 $(100.0*dt) iso 0.0 0.0 $(1000.0*dt)
fix             THERM all npt temp 600 600 0.10000000000000000555 iso 0.0 0.0 $(1000.0*dt)
fix             THERM all npt temp 600 600 0.10000000000000000555 iso 0.0 0.0 1
run             5000
PPPM initialization ...
  G vector (1/distance) = 0.33192
  grid = 72 72 60
  stencil order = 5
  estimated absolute RMS force accuracy = 0.000155524
  estimated relative force accuracy = 1.08006e-05
  3d grid and FFT values/proc = 68413 41472
  update every 100 steps, delay 100 steps, check yes
Step TotEng Temp PotEng Press Pxx Pyy Pzz Fmax Lx Ly Lz
0   -182095.67          600   -183167.73   -41288.897   -77268.738    -77295.12    30697.168   0.17758201       55.116       55.116       47.344
Averages over the last 6 of 11 rows, steps 2500 to 5000:
TotEng Temp PotEng Press Pxx Pyy Pzz Fmax Lx Ly Lz
-181072 599.74 -182144 -71.3047 -36969.3 -36991.3 73746.7 5.58117 54.9158 54.9158 47.172
Loop time of 416.724 on 8 procs for 5000 steps with 13824 atoms

unfix           THERM

write_data      thermalized.pos
PPPM initialization ...
  G vector (1/distance) = 0.332126
  grid = 72 72 60
  stencil order = 5
  estimated absolute RMS force accuracy = 0.000154043
  estimated relative force accuracy = 1.06977e-05
  3d grid and FFT values/proc = 68413 41472

# --------------------------------------------------------------------------------------------------
# write positions for SQW calculation
# --------------------------------------------------------------------------------------------------

dump            POSITIONS all h5md 16 pos.h5 position species
dump_modify     POSITIONS sort id

fix             SQW all nve
run             32000
PPPM initialization ...
  G vector (1/distance) = 0.332126
  grid = 72 72 60
  stencil order = 5
  estimated absolute RMS force accuracy = 0.000154043
  estimated relative force accuracy = 1.06977e-05
  3d grid and FFT values/proc = 68413 41472
Step TotEng Temp PotEng Press Pxx Pyy Pzz Fmax Lx Ly Lz
5000   -181064.77    603.07911   -182142.33   -873.57358   -37586.791   -37809.902    72775.972    4.7341686    54.921006    54.921006    47.176502
Averages over the last 33 of 65 rows, steps 21000 to 37000:
TotEng Temp PotEng Press Pxx Pyy Pzz Fmax Lx Ly Lz
-181065 602.631 -182142 -685.992 -37523.3 -37598.8 73064.1 5.46775 54.921 54.921 47.1765
Loop time of 1720.67 on 8 procs for 32000 steps with 13824 atoms

unfix           SQW

write_data      sqw.pos
PPPM initialization ...
  G vector (1/distance) = 0.332126
  grid = 72 72 60
  stencil order = 5
  estimated absolute RMS force accuracy = 0.000154043
  estimated relative force accuracy = 1.06977e-05
  3d grid and FFT values/proc = 68413 41472

# --------------------------------------------------------------------------------------------------
# finalize stuff
# --------------------------------------------------------------------------------------------------

undump          POSITIONS
undump          TRJ
