LAMMPS (29 Sep 2021 - Update 2)

# ----------------------- set up calc -------------------------

### units
atom_style      atomic
units           metal

### periodicity
dimension       3
boundary        p p p
processors      * * *

### read structure
read_data	si_12x12x12.supercell
Reading data file ...
  orthogonal box = (0.0000000 0.0000000 0.0000000) to (65.172000 65.172000 65.172000)
  reading atoms ...
  13824 atoms

### potential
pair_style      tersoff
pair_coeff      * * SiCGe.tersoff Si(D)
Reading tersoff potential file SiCGe.tersoff with DATE: 2009-03-18

### timestep and temp
timestep        0.001
variable        T equal 300

### what to print and how often
thermo_style    custom step temp pe etotal press pxx pyy pzz lx ly lz fmax fnorm
thermo          500

dump            TRJ all custom 500 sim.lammpstrj id type x y z
dump_modify     TRJ sort id

# -------------------- equilibration ------------------------

### NVT thermalization
velocity        all create 300 123456 mom yes rot yes dist gaussian
fix             NVT all nvt temp 300 300 $(dt*100) tchain 10
fix             NVT all nvt temp 300 300 0.10000000000000000555 tchain 10
run             5000
  update every 1 steps, delay 10 steps, check yes
Step Temp PotEng TotEng Press Pxx Pyy Pzz Lx Ly Lz Fmax Fnorm
0          300   -63999.495   -63463.467    2611.7864    2618.5834    2630.8791    2585.8967       65.172       65.172       65.172 7.7951534e-14 7.5121562e-12
Averages over the last 6 of 11 rows, steps 2500 to 5000:
Temp PotEng TotEng Press Pxx Pyy Pzz Lx Ly Lz Fmax Fnorm
301.7 -63458.6 -62919.6 6059.81 6062.15 6050.78 6066.5 65.172 65.172 65.172 2.73282 129.962
Loop time of 6.09891 on 16 procs for 5000 steps with 13824 atoms

unfix           NVT

### NVE equlibration (de-correlate from thermostats)
fix             NVE all nve
run             5000
Step Temp PotEng TotEng Press Pxx Pyy Pzz Lx Ly Lz Fmax Fnorm
5000    289.81914    -63440.64   -62922.802    6086.8839    6068.2599    6045.1831    6147.2085       65.172       65.172       65.172    3.0430203    132.29324
Averages over the last 6 of 11 rows, steps 7500 to 10000:
Temp PotEng TotEng Press Pxx Pyy Pzz Lx Ly Lz Fmax Fnorm
298.605 -63456.4 -62922.8 6006.16 6004.7 6006.42 6007.35 65.172 65.172 65.172 2.71373 129.794
Loop time of 6.11589 on 16 procs for 5000 steps with 13824 atoms

unfix           NVE

# -------------------- sample the data -----------------------

### vels/pos print frequency
variable	dt_dump equal 24

### print pos to hdf5 file
#dump_modify     POS sort id
dump            pos all custom 24 pos.dat id type xu yu zu
dump_modify     pos sort id

### run to collect pos/vels
fix             NVE all nve
run             24000
Step Temp PotEng TotEng Press Pxx Pyy Pzz Lx Ly Lz Fmax Fnorm
10000    300.57458   -63459.893   -62922.838    6002.4565    5960.7703    5998.1473    6048.4519       65.172       65.172       65.172    2.7325626    129.53804
Averages over the last 25 of 49 rows, steps 22000 to 34000:
Temp PotEng TotEng Press Pxx Pyy Pzz Lx Ly Lz Fmax Fnorm
299.476 -63457.9 -62922.8 6059.18 6061.63 6052.63 6063.26 65.172 65.172 65.172 2.83434 130.297
Loop time of 31.535 on 16 procs for 24000 steps with 13824 atoms

unfix           NVE
