LAMMPS (20 Nov 2019)

# ----------------------- set up calc -------------------------

### units
atom_style      atomic
units           metal

### periodicity
dimension       3
boundary        p p p
processors      * * *

### read structure
read_data       si_ge_0.10_12x12x12.supercell
  orthogonal box = (0 0 0) to (65.172 65.172 65.172)
  reading atoms ...
  13824 atoms

### potential
pair_style      tersoff
pair_coeff      * * SiCGe.tersoff Si(D) Ge
Reading potential file SiCGe.tersoff with DATE: 2009-03-18

### timestep and temp
timestep        0.001
variable        T equal 300

### what to print and how often
thermo_style    custom step temp pe etotal press pxx pyy pzz lx ly lz fmax fnorm
thermo          500

dump            TRJ all custom 500 sim.lammpstrj id type x y z
dump_modify     TRJ sort id

# -------------------- equilibration ------------------------

### NVT thermalization
velocity        all create 300 123456 mom yes rot yes dist gaussian
fix             NVT all nvt temp 300 300 $(dt*100) tchain 10
fix             NVT all nvt temp 300 300 0.10000000000000000555 tchain 10
run             5000
  update every 1 steps, delay 10 steps, check yes
Step Temp PotEng TotEng Press Pxx Pyy Pzz Lx Ly Lz Fmax Fnorm
0          300   -62833.777   -62297.748    14409.584    14416.324    14428.679    14383.748       65.172       65.172       65.172   0.57476395    33.869296
Averages over the last 6 of 11 rows, steps 2500 to 5000:
Temp PotEng TotEng Press Pxx Pyy Pzz Lx Ly Lz Fmax Fnorm
298.92 -62333.9 -61799.8 17674.9 17646.8 17694 17684 65.172 65.172 65.172 3.00826 131.252
Loop time of 15.276 on 16 procs for 5000 steps with 13824 atoms

unfix           NVT

### NVE equlibration (de-correlate from thermostats)
fix             NVE all nve
run             5000
Step Temp PotEng TotEng Press Pxx Pyy Pzz Lx Ly Lz Fmax Fnorm
5000    299.54939   -62330.173   -61794.949     17700.39    17627.927    17783.036    17690.207       65.172       65.172       65.172    3.1834228    131.75629
Averages over the last 6 of 11 rows, steps 7500 to 10000:
Temp PotEng TotEng Press Pxx Pyy Pzz Lx Ly Lz Fmax Fnorm
300.972 -62332.7 -61795 17694.1 17685.9 17700.7 17695.7 65.172 65.172 65.172 2.70632 131.612
Loop time of 15.7889 on 16 procs for 5000 steps with 13824 atoms

unfix           NVE

# -------------------- sample the data -----------------------

### vels/pos print frequency
variable	dt_dump equal 24

### print pos to hdf5 file
dump            pos all h5md 24 pos.h5 position species
dump_modify     pos sort id

### run to collect pos/vels
fix             NVE all nve
run             24000
Step Temp PotEng TotEng Press Pxx Pyy Pzz Lx Ly Lz Fmax Fnorm
10000    301.90673    -62334.39   -61794.954    17683.126    17676.585    17656.135    17716.658       65.172       65.172       65.172    2.6948894     131.7311
Averages over the last 25 of 49 rows, steps 22000 to 34000:
Temp PotEng TotEng Press Pxx Pyy Pzz Lx Ly Lz Fmax Fnorm
300.487 -62331.9 -61795 17672.3 17660.6 17665.3 17690.9 65.172 65.172 65.172 2.75829 131.759
Loop time of 74.0652 on 16 procs for 24000 steps with 13824 atoms

unfix           NVE
