LAMMPS (29 Sep 2021 - Update 2)

# ----------------------- set up calc -------------------------

### units
atom_style      atomic
units           metal

### periodicity
dimension       3
boundary        p p p
processors      * * *

### read structure
read_data	si_12x12x12.supercell
Reading data file ...
  orthogonal box = (0.0000000 0.0000000 0.0000000) to (65.172000 65.172000 65.172000)
  reading atoms ...
  13824 atoms

### potential
pair_style      tersoff
pair_coeff      * * SiCGe.tersoff Si(D)
Reading tersoff potential file SiCGe.tersoff with DATE: 2009-03-18

### timestep and temp
timestep        0.001
variable        T equal 300

### what to print and how often
thermo_style    custom step temp pe etotal press pxx pyy pzz lx ly lz fmax fnorm
thermo          500

dump            TRJ all custom 500 sim.lammpstrj id type x y z
dump_modify     TRJ sort id

# -------------------- equilibration ------------------------

### NVT thermalization
velocity        all create 300 123456 mom yes rot yes dist gaussian
fix             NVT all nvt temp 300 300 $(dt*100) tchain 10
fix             NVT all nvt temp 300 300 0.10000000000000000555 tchain 10
run             100000
  update every 1 steps, delay 10 steps, check yes
Step Temp PotEng TotEng Press Pxx Pyy Pzz Lx Ly Lz Fmax Fnorm
0          300   -63999.495   -63463.467    2611.7864    2618.5834    2630.8791    2585.8967       65.172       65.172       65.172 7.7951534e-14 7.511704e-12
Averages over the last 101 of 201 rows, steps 50000 to 100000:
Temp PotEng TotEng Press Pxx Pyy Pzz Lx Ly Lz Fmax Fnorm
300.105 -63458.5 -62922.3 6058.7 6063.03 6055.13 6057.94 65.172 65.172 65.172 2.80097 130.092
Loop time of 175.324 on 12 procs for 100000 steps with 13824 atoms

unfix           NVT

### NVE equlibration (de-correlate from thermostats)
fix             NVE all nve
run             100000
Step Temp PotEng TotEng Press Pxx Pyy Pzz Lx Ly Lz Fmax Fnorm
100000    297.03998   -63463.511   -62932.771    5953.7553    5954.2904    5971.4265    5935.5491       65.172       65.172       65.172    2.7292786     128.9886
Averages over the last 101 of 201 rows, steps 150000 to 200000:
Temp PotEng TotEng Press Pxx Pyy Pzz Lx Ly Lz Fmax Fnorm
297.018 -63463.5 -62932.8 5994.62 5993.64 5993.92 5996.31 65.172 65.172 65.172 2.75959 129.436
Loop time of 182.856 on 12 procs for 100000 steps with 13824 atoms

unfix           NVE

# -------------------- sample the data -----------------------

### vels/pos print frequency
variable	dt_dump equal 24

### print pos to hdf5 file
#dump_modify     POS sort id
dump            pos all custom 24 pos.dat id type xu yu zu
dump_modify     pos sort id

### run to collect pos/vels
fix             NVE all nve
run             262144
Step Temp PotEng TotEng Press Pxx Pyy Pzz Lx Ly Lz Fmax Fnorm
200000    296.97024   -63463.389   -62932.773    5999.1948    5995.6043    5944.7021     6057.278       65.172       65.172       65.172    2.5790837     129.3599
Averages over the last 263 of 526 rows, steps 331500 to 462144:
Temp PotEng TotEng Press Pxx Pyy Pzz Lx Ly Lz Fmax Fnorm
297.011 -63463.5 -62932.8 5990.14 5990.37 5990 5990.06 65.172 65.172 65.172 2.79777 129.412
Loop time of 493.413 on 12 procs for 262144 steps with 13824 atoms

unfix           NVE
