LAMMPS (29 Sep 2021 - Update 2)

# ----------------------- set up calc -------------------------

### units
atom_style      atomic
units           metal

### periodicity
dimension       3
boundary        p p p
processors      * * *

### read structure
read_data	si_12x12x12.supercell
Reading data file ...
  orthogonal box = (0.0000000 0.0000000 0.0000000) to (65.172000 65.172000 65.172000)
  reading atoms ...
  13824 atoms

### potential
pair_style      tersoff
pair_coeff      * * SiCGe.tersoff Si(D)
Reading tersoff potential file SiCGe.tersoff with DATE: 2009-03-18

### timestep and temp
timestep        0.001
variable        T equal 300

### what to print and how often
thermo_style    custom step temp pe etotal press pxx pyy pzz lx ly lz fmax fnorm
thermo          500

dump            TRJ all custom 500 sim.lammpstrj id type x y z
dump_modify     TRJ sort id

# -------------------- equilibration ------------------------

### NVT thermalization
velocity        all create 300 123456 mom yes rot yes dist gaussian
fix             NVT all nvt temp 300 300 $(dt*100) tchain 10
fix             NVT all nvt temp 300 300 0.10000000000000000555 tchain 10
run             100000
  update every 1 steps, delay 10 steps, check yes
Step Temp PotEng TotEng Press Pxx Pyy Pzz Lx Ly Lz Fmax Fnorm
0          300   -63999.495   -63463.467    2611.7864    2618.5834    2630.8791    2585.8967       65.172       65.172       65.172 7.7951534e-14 7.5107956e-12
Averages over the last 101 of 201 rows, steps 50000 to 100000:
Temp PotEng TotEng Press Pxx Pyy Pzz Lx Ly Lz Fmax Fnorm
300.37 -63457.9 -62921.2 6064.74 6068.69 6062.22 6063.31 65.172 65.172 65.172 2.78402 130.172
Loop time of 138.417 on 8 procs for 100000 steps with 13824 atoms

unfix           NVT

### NVE equlibration (de-correlate from thermostats)
fix             NVE all nve
run             100000
Step Temp PotEng TotEng Press Pxx Pyy Pzz Lx Ly Lz Fmax Fnorm
100000    298.46844   -63465.478   -62932.185    5957.1161    5952.8646    5969.6719    5948.8118       65.172       65.172       65.172    2.5951436    128.73949
Averages over the last 101 of 201 rows, steps 150000 to 200000:
Temp PotEng TotEng Press Pxx Pyy Pzz Lx Ly Lz Fmax Fnorm
296.986 -63462.8 -62932.2 5979.76 5981.62 5983.24 5974.43 65.172 65.172 65.172 2.80317 129.304
Loop time of 146.523 on 8 procs for 100000 steps with 13824 atoms

unfix           NVE

# -------------------- sample the data -----------------------

### vels/pos print frequency
variable	dt_dump equal 24

### print pos to hdf5 file
#dump_modify     POS sort id
dump            pos all custom 24 pos.dat id type xu yu zu
dump_modify     pos sort id

### run to collect pos/vels
fix             NVE all nve
run             262144
Step Temp PotEng TotEng Press Pxx Pyy Pzz Lx Ly Lz Fmax Fnorm
200000    295.21219   -63459.652   -62932.178    5967.9953    5958.2045    5987.4105    5958.3709       65.172       65.172       65.172    2.5423356    129.82989
Averages over the last 60 of 119 rows, steps 229500 to 259000:
Temp PotEng TotEng Press Pxx Pyy Pzz Lx Ly Lz Fmax Fnorm
296.949 -63462.8 -62932.2 5967.58 5969.17 5959.18 5974.39 65.172 65.172 65.172 2.80817 129.273
