LAMMPS (20 Nov 2019)
# --------------------------------------------------------------------------------------------------
# cubic CH3NH3PbI3

# --------------------------------------------------------------------------------------------------
# define simulation domain
# --------------------------------------------------------------------------------------------------

units             real
dimension         3
newton            on
boundary          p p p
atom_style        full

atom_modify       sort 100 0.0 map array

# --------------------------------------------------------------------------------------------------
# define simulation paramters
# --------------------------------------------------------------------------------------------------

variable        t_therm     equal 600
variable	t_sim       equal 350

variable        dt          equal 0.25
variable        dt_dump     equal 200   # how often to write pos to file: ~10 THz = ~41.3 meV

variable        seed        equal 864215

variable        therm_run   equal 20000  # thermalize at high T, quench to room T
variable        sqw_run     equal 200000

variable        trj_dump    equal 500
variable        thermo_dump equal 500

# --------------------------------------------------------------------------------------------------
# define crystal
# --------------------------------------------------------------------------------------------------

read_data       MAPI_cubic.prim
  orthogonal box = (0 0 0) to (6.37256 6.37256 6.37256)
  reading atoms ...
  12 atoms
  scanning bonds ...
  scanning angles ...
  scanning dihedrals ...
  reading bonds ...
  7 bonds
  reading angles ...
  12 angles
  reading dihedrals ...
  9 dihedrals

mass            1 12.0100
mass            2 14.0100
mass            3 1.0080
mass            4 1.0080
mass            5 207.2
mass            6 126.90

replicate       12 12 12
  orthogonal box = (0 0 0) to (76.4707 76.4707 76.4707)
  20736 atoms
  12096 bonds
  20736 angles
  15552 dihedrals
  replicate CPU = 0.00290704 secs

# --------------------------------------------------------------------------------------------------
# define potential
# --------------------------------------------------------------------------------------------------

bond_style      harmonic
bond_coeff	1 677.4000 1.0910
bond_coeff	2 738.0000 1.0330
bond_coeff	3 350 1.53

angle_style     harmonic
angle_coeff	1 78.0000 110.7400
angle_coeff	2 81.0000 108.1100
angle_coeff	3 98.0000 107.9100
angle_coeff	4 92.4000 110.1100

dihedral_style  charmm
dihedral_coeff  1 0.1556 3 0 0.500

pair_style      hybrid lj/charmm/coul/long  6.0 10.0 buck/long/coul/long cut long 6.0 10.0
pair_coeff      1 1 lj/charmm/coul/long 0.1094 3.39970
pair_coeff      1 2 lj/charmm/coul/long 0.1364 3.32480
pair_coeff      1 3 lj/charmm/coul/long 0.0414 2.67980
pair_coeff      1 4 lj/charmm/coul/long 0.0414 2.23440
pair_coeff      1 5 buck/long/coul/long 32690390.937995 0.150947 0.000000
pair_coeff      1 6 buck/long/coul/long 112936.714213 0.342426 0.000000
pair_coeff      2 2 lj/charmm/coul/long 0.1700 3.25000
pair_coeff      2 3 lj/charmm/coul/long 0.0517 2.60500
pair_coeff      2 4 lj/charmm/coul/long 0.0517 2.15950
pair_coeff      2 5 buck/long/coul/long 32690390.937995 0.150947 0.000000
pair_coeff      2 6 buck/long/coul/long 112936.714213 0.342426 0.000000
pair_coeff      3 3 lj/charmm/coul/long 0.0157 1.96000
pair_coeff      3 4 lj/charmm/coul/long 0.0157 1.51450
pair_coeff      3 5 lj/charmm/coul/long 0.0140 2.70999
pair_coeff      3 6 lj/charmm/coul/long 0.0574 3.10000
pair_coeff      4 4 lj/charmm/coul/long 0.0157 1.06910
pair_coeff      4 5 lj/charmm/coul/long 0.0140 2.26454
pair_coeff      4 6 lj/charmm/coul/long 0.0574 2.75000
pair_coeff      5 5 buck/long/coul/long 70359906.629702 0.131258 0.000000
pair_coeff      5 6 buck/long/coul/long 103496.133010 0.321737 0.000000
pair_coeff      6 6 buck/long/coul/long 22793.338582 0.482217 696.949542
kspace_style    pppm/disp 1.0e-4

# --------------------------------------------------------------------------------------------------
# set some more params
# --------------------------------------------------------------------------------------------------

timestep        0.25
reset_timestep  0

thermo          500
thermo_style    custom step etotal temp pe press pxx pyy pzz fmax lx ly lz

dump            TRJ all custom 500 sim.lammpstrj id type x y z
dump_modify     TRJ sort id

# --------------------------------------------------------------------------------------------------
# thermalize at high T
# --------------------------------------------------------------------------------------------------

velocity        all create 350 864215 mom yes rot yes dist gaussian

fix             THERM all npt temp 600 600 $(100.0*dt) iso 0.0 0.0 $(1000.0*dt)
fix             THERM all npt temp 600 600 25 iso 0.0 0.0 $(1000.0*dt)
fix             THERM all npt temp 600 600 25 iso 0.0 0.0 250
run             20000
PPPMDisp initialization ...
  Coulomb G vector (1/distance) = 0.27444
  Coulomb grid = 45 45 45
  Coulomb stencil order = 5
  Coulomb estimated absolute RMS force accuracy = 0.0303625
  Coulomb estimated relative force accuracy = 9.14356e-05
  3d grid and FFT values/proc = 15138 6348
  update every 1 steps, delay 10 steps, check yes
Step TotEng Temp PotEng Press Pxx Pyy Pzz Fmax Lx Ly Lz
0   -1202935.2          350   -1224567.7   -9539.8261   -4265.5817   -18803.953   -5549.9438    59.085592    76.470715    76.470715    76.470715
Averages over the last 21 of 41 rows, steps 10000 to 20000:
TotEng Temp PotEng Press Pxx Pyy Pzz Fmax Lx Ly Lz
-1.1654e+06 599.002 -1.20242e+06 60.5659 112.09 -15.175 84.7828 190.435 76.5306 76.5306 76.5306
Loop time of 201.918 on 16 procs for 20000 steps with 20736 atoms

unfix           THERM

# --------------------------------------------------------------------------------------------------
# quench to ~ room T
# --------------------------------------------------------------------------------------------------

fix             QUENCH all npt temp 600 350 $(100.0*dt) iso 0.0 0.0 $(1000.0*dt)
fix             QUENCH all npt temp 600 350 25 iso 0.0 0.0 $(1000.0*dt)
fix             QUENCH all npt temp 600 350 25 iso 0.0 0.0 250
run             20000
PPPMDisp initialization ...
  Coulomb G vector (1/distance) = 0.274368
  Coulomb grid = 45 45 45
  Coulomb stencil order = 5
  Coulomb estimated absolute RMS force accuracy = 0.0304434
  Coulomb estimated relative force accuracy = 9.16795e-05
  3d grid and FFT values/proc = 15138 6348
  update every 1 steps, delay 10 steps, check yes
Step TotEng Temp PotEng Press Pxx Pyy Pzz Fmax Lx Ly Lz
20000     -1165758    599.05485   -1202783.8   -1017.5685   -1020.6312   -756.61029   -1275.4641    194.38661    76.537298    76.537298    76.537298
Averages over the last 21 of 41 rows, steps 30000 to 40000:
TotEng Temp PotEng Press Pxx Pyy Pzz Fmax Lx Ly Lz
-1.18834e+06 413.131 -1.21387e+06 66.2113 56.0505 69.4146 73.1688 164.899 75.9185 75.9185 75.9185
Loop time of 206.302 on 16 procs for 20000 steps with 20736 atoms

unfix           QUENCH

# --------------------------------------------------------------------------------------------------
# write positions for SQW calculation
# --------------------------------------------------------------------------------------------------

dump            POSITIONS all h5md 200 pos.h5 position species
dump_modify     POSITIONS sort id

fix             SQW all nve
run             200000
PPPMDisp initialization ...
  Coulomb G vector (1/distance) = 0.275277
  Coulomb grid = 45 45 45
  Coulomb stencil order = 5
  Coulomb estimated absolute RMS force accuracy = 0.0294394
  Coulomb estimated relative force accuracy = 8.8656e-05
  3d grid and FFT values/proc = 15138 6348
  update every 1 steps, delay 10 steps, check yes
Step TotEng Temp PotEng Press Pxx Pyy Pzz Fmax Lx Ly Lz
40000   -1196050.1    350.24181   -1217697.5    454.25268    209.61503    653.26076    499.88225     139.7278    75.703105    75.703105    75.703105
Averages over the last 201 of 401 rows, steps 140000 to 240000:
TotEng Temp PotEng Press Pxx Pyy Pzz Fmax Lx Ly Lz
-1.19604e+06 351.608 -1.21777e+06 99.5708 80.2211 107.948 110.543 144.823 75.7031 75.7031 75.7031
Loop time of 2031.49 on 16 procs for 200000 steps with 20736 atoms

unfix           SQW

# --------------------------------------------------------------------------------------------------
# finalize stuff
# --------------------------------------------------------------------------------------------------

undump          POSITIONS
undump          TRJ
