LAMMPS (20 Nov 2019)
# =============================================================
# ----------------------- tersoff Si --------------------------
# =============================================================

# ----------------------- set up calc -------------------------

### units
atom_style      atomic
units           metal

### periodicity
dimension       3
boundary        p p p
processors      * * *

### read structure
read_data	si.prim
  orthogonal box = (0 0 0) to (5.431 5.431 5.431)
  reading atoms ...
  8 atoms
replicate       12 12 12
  orthogonal box = (0 0 0) to (65.172 65.172 65.172)
  13824 atoms
  replicate CPU = 0.0012169 secs

### potential
pair_style      tersoff
pair_coeff      * * SiCGe.tersoff Si(D)
Reading potential file SiCGe.tersoff with DATE: 2009-03-18

### timestep and temp
timestep        0.001
variable        T equal 300

### what to print and how often
thermo_style    custom step temp pe etotal press pxx pyy pzz lx ly lz fmax fnorm
thermo          500

# -------------------- equilibration ------------------------

### NVT thermalization
velocity        all create 300 123456 mom yes rot yes dist gaussian
fix             NVT all nvt temp 300 300 $(dt*100) tchain 10
fix             NVT all nvt temp 300 300 0.10000000000000000555 tchain 10
run             5000
  update every 1 steps, delay 10 steps, check yes
Step Temp PotEng TotEng Press Pxx Pyy Pzz Lx Ly Lz Fmax Fnorm
0          300   -63999.495   -63463.467    2611.7864    2618.5834    2630.8791    2585.8967       65.172       65.172       65.172 8.1087914e-14 7.9172954e-12
Averages over the last 6 of 11 rows, steps 2500 to 5000:
Temp PotEng TotEng Press Pxx Pyy Pzz Lx Ly Lz Fmax Fnorm
301.7 -63458.6 -62919.6 6059.81 6062.15 6050.78 6066.5 65.172 65.172 65.172 2.73282 129.962
Loop time of 14.2065 on 16 procs for 5000 steps with 13824 atoms

unfix           NVT

### NVE equlibration (de-correlate from thermostats)
fix             NVE all nve
run             5000
Step Temp PotEng TotEng Press Pxx Pyy Pzz Lx Ly Lz Fmax Fnorm
5000    289.81914    -63440.64   -62922.802    6086.8839    6068.2599    6045.1831    6147.2085       65.172       65.172       65.172    3.0430203    132.29324
Averages over the last 6 of 11 rows, steps 7500 to 10000:
Temp PotEng TotEng Press Pxx Pyy Pzz Lx Ly Lz Fmax Fnorm
298.605 -63456.4 -62922.8 6006.16 6004.7 6006.42 6007.35 65.172 65.172 65.172 2.71373 129.794
Loop time of 14.3912 on 16 procs for 5000 steps with 13824 atoms

unfix           NVE

# -------------------- sample the data -----------------------

### vels/pos print frequency
variable	dt_dump equal 24

### print pos to hdf5 file
dump            pos all h5md 24 pos.h5 position species
dump_modify     pos sort id

### run to collect pos/vels
fix             NVE all nve
run             100000
Step Temp PotEng TotEng Press Pxx Pyy Pzz Lx Ly Lz Fmax Fnorm
10000    300.57458   -63459.893   -62922.838    6002.4565    5960.7703    5998.1473    6048.4519       65.172       65.172       65.172    2.7325626    129.53804
Averages over the last 101 of 201 rows, steps 60000 to 110000:
Temp PotEng TotEng Press Pxx Pyy Pzz Lx Ly Lz Fmax Fnorm
299.976 -63458.8 -62922.8 6055.01 6058.3 6057.96 6048.77 65.172 65.172 65.172 2.77105 130.066
Loop time of 304.063 on 16 procs for 100000 steps with 13824 atoms

unfix           NVE
