LAMMPS (20 Nov 2019)

# --------------------------------------------------------------------------------------------------
# rutile TiO2

# --------------------------------------------------------------------------------------------------
# define simulation domain
# --------------------------------------------------------------------------------------------------

units           metal
dimension       3
newton          on
boundary        p p p
atom_style      charge

comm_modify     cutoff 48
neighbor        1.0 bin
neigh_modify    every 100 delay 100 check yes

# --------------------------------------------------------------------------------------------------
# define simulation paramters
# --------------------------------------------------------------------------------------------------

variable        dt          equal 0.001         # timestep
variable        dt_dump     equal 16            # how often to write pos to file: ~32 THz = ~132 meV

variable	t_sim       equal 600

variable        seed        equal 864215

variable        therm_run   equal 5000   # thermalize at T
variable        sqw_run     equal 32000
variable        quench_run  equal 2000

variable        trj_dump    equal 500
variable        thermo_dump equal 500

# --------------------------------------------------------------------------------------------------
# define crystal
# --------------------------------------------------------------------------------------------------

read_data       rutile_Ov_500_Tiv_250_12x12x16.supercell
  orthogonal box = (0 0 0) to (55.116 55.116 47.344)
  reading atoms ...
  13074 atoms

# --------------------------------------------------------------------------------------------------
# define potential
# --------------------------------------------------------------------------------------------------

# params from https://doi.org/10.1080/08927029108022432

pair_style      buck/coul/long 10.0 # cutoff Buckingham at 10 A, use Ewald for Coulomb (not cut off)

pair_coeff      1 1     31120.43 0.154  5.2469
pair_coeff      1 2     16957.67 0.194 12.5926
pair_coeff      2 2     11782.85 0.234 30.2222

kspace_style    pppm 1.0e-5

# --------------------------------------------------------------------------------------------------
# set some more params
# --------------------------------------------------------------------------------------------------

timestep        0.001
reset_timestep  0

thermo          500
thermo_style    custom step etotal temp pe press pxx pyy pzz fmax lx ly lz

dump            TRJ all custom 100 sim.lammpstrj id type x y z
dump_modify     TRJ sort id

# --------------------------------------------------------------------------------------------------
# quench the atoms that have large forces
# --------------------------------------------------------------------------------------------------

fix             NVE all nve
fix             VISCOUS all viscous 0.3
run             2000
PPPM initialization ...
  G vector (1/distance) = 0.331836
  grid = 72 72 60
  stencil order = 5
  estimated absolute RMS force accuracy = 0.000151573
  estimated relative force accuracy = 1.05262e-05
  3d grid and FFT values/proc = 39775 20736
  update every 100 steps, delay 100 steps, check yes
Step TotEng Temp PotEng Press Pxx Pyy Pzz Fmax Lx Ly Lz
0   -163881.99            0   -163881.99   -44272.949   -72224.995   -83526.951    22933.097    21.298928       55.116       55.116       47.344
Loop time of 53.5002 on 16 procs for 2000 steps with 13074 atoms

unfix           VISCOUS
unfix           NVE

fix             NVE all nve
fix             VISCOUS all viscous 0.1
run             2000
PPPM initialization ...
  G vector (1/distance) = 0.331836
  grid = 72 72 60
  stencil order = 5
  estimated absolute RMS force accuracy = 0.000151573
  estimated relative force accuracy = 1.05262e-05
  3d grid and FFT values/proc = 39775 20736
Step TotEng Temp PotEng Press Pxx Pyy Pzz Fmax Lx Ly Lz
2000   -170567.81   0.27158857   -170568.27    -12221.75   -39718.997   -40182.266    43236.014   0.54569652       55.116       55.116       47.344
Loop time of 51.4457 on 16 procs for 2000 steps with 13074 atoms

unfix           VISCOUS
unfix           NVE

dump_modify     TRJ every 500

# --------------------------------------------------------------------------------------------------
# thermalize
# --------------------------------------------------------------------------------------------------

velocity        all create 600 864215 mom yes rot yes dist gaussian

fix             THERM all npt temp 600 600 $(100.0*dt) iso 0.0 0.0 $(1000.0*dt)
fix             THERM all npt temp 600 600 0.10000000000000000555 iso 0.0 0.0 $(1000.0*dt)
fix             THERM all npt temp 600 600 0.10000000000000000555 iso 0.0 0.0 1
run             5000
PPPM initialization ...
  G vector (1/distance) = 0.331836
  grid = 72 72 60
  stencil order = 5
  estimated absolute RMS force accuracy = 0.000151573
  estimated relative force accuracy = 1.05262e-05
  3d grid and FFT values/proc = 39775 20736
Step TotEng Temp PotEng Press Pxx Pyy Pzz Fmax Lx Ly Lz
4000   -169841.01          600    -170854.9    -7798.776   -33445.124   -35302.943    45351.739    1.1150417       55.116       55.116       47.344
Averages over the last 6 of 11 rows, steps 6500 to 9000:
TotEng Temp PotEng Press Pxx Pyy Pzz Fmax Lx Ly Lz
-169151 600.497 -170165 -13.3175 -26449.7 -27466.5 53876.2 5.54267 55.1515 55.1515 47.3745
Loop time of 163.023 on 16 procs for 5000 steps with 13074 atoms

unfix           THERM

# --------------------------------------------------------------------------------------------------
# write positions for SQW calculation
# --------------------------------------------------------------------------------------------------

dump            POSITIONS all h5md 16 pos.h5 position species
dump_modify     POSITIONS sort id

fix             SQW all nve
run             32000
PPPM initialization ...
  G vector (1/distance) = 0.331789
  grid = 72 72 60
  stencil order = 5
  estimated absolute RMS force accuracy = 0.000151901
  estimated relative force accuracy = 1.05489e-05
  3d grid and FFT values/proc = 39775 20736
Step TotEng Temp PotEng Press Pxx Pyy Pzz Fmax Lx Ly Lz
9000   -169171.92    599.57595   -170185.09   -832.82266   -27100.172    -27028.11    51629.814    5.9527682    55.160406    55.160406    47.382144
Averages over the last 33 of 65 rows, steps 25000 to 41000:
TotEng Temp PotEng Press Pxx Pyy Pzz Fmax Lx Ly Lz
-169172 627.525 -170232 -1642.22 -27964.4 -29699.7 52737.5 5.8079 55.1604 55.1604 47.3821
Loop time of 800.1 on 16 procs for 32000 steps with 13074 atoms

unfix           SQW

# --------------------------------------------------------------------------------------------------
# finalize stuff
# --------------------------------------------------------------------------------------------------

undump          POSITIONS
undump          TRJ
