LAMMPS (29 Sep 2021 - Update 2)

# --------------------------------------------------------------------------------------------------
# rutile TiO2 WITHOUT electric field
# NOTE: according to wikipedia, rutile melts at ~2200 K

# --------------------------------------------------------------------------------------------------
# define simulation domain
# --------------------------------------------------------------------------------------------------

units           metal
dimension       3
newton          on
boundary        p p p
atom_style      charge

comm_modify     cutoff 48
neighbor        2.0 bin
neigh_modify    every 100 delay 0 check yes

# --------------------------------------------------------------------------------------------------
# define simulation paramters
# --------------------------------------------------------------------------------------------------

variable        dt equal    0.001         # timestep
variable        dt_dump     equal 16

variable	t_sim       equal 300

variable        therm_run equal 50000   # thermalize at T
variable        sqw_run equal 64000 # 4000 steps written to file

variable        trj_dump equal 500
variable        thermo_dump equal 500

# --------------------------------------------------------------------------------------------------
# define crystal
# --------------------------------------------------------------------------------------------------

read_data       rutile.prim.pos
Reading data file ...
  orthogonal box = (0.0000000 0.0000000 0.0000000) to (4.5930000 4.5930000 2.9590000)
  reading atoms ...
  6 atoms
replicate       10 10 12
Replicating atoms ...
  orthogonal box = (0.0000000 0.0000000 0.0000000) to (45.930000 45.930000 35.508000)
  7200 atoms
  replicate CPU = 0.000 seconds

# --------------------------------------------------------------------------------------------------
# define potential
# --------------------------------------------------------------------------------------------------

pair_style      buck/coul/long 12.0 # cutoff Buckingham at 10 A, use Ewald for Coulomb (not cut off)

pair_coeff      1 1     31120.43 0.154  5.2469
pair_coeff      1 2     16957.67 0.194 12.5926
pair_coeff      2 2     11782.85 0.234 30.2222

kspace_style    pppm 1.0e-5

# --------------------------------------------------------------------------------------------------
# set some more params
# --------------------------------------------------------------------------------------------------

timestep        0.001
reset_timestep  0

thermo          500
thermo_style    custom step etotal temp pe press pxx pyy pzz fmax lx ly lz

dump            TRJ all custom 500 sim.lammpstrj id type x y z
dump_modify     TRJ sort id

# --------------------------------------------------------------------------------------------------
# NPT run, no field
# --------------------------------------------------------------------------------------------------

fix             THERM all npt temp 300 300 $(100.0*dt)                             x 0.0 0.0 $(1000.0*dt) y 0.0 0.0 $(1000.0*dt) z 0.0 0.0 $(1000.0*dt)
fix             THERM all npt temp 300 300 0.10000000000000000555                             x 0.0 0.0 $(1000.0*dt) y 0.0 0.0 $(1000.0*dt) z 0.0 0.0 $(1000.0*dt)
fix             THERM all npt temp 300 300 0.10000000000000000555                             x 0.0 0.0 1 y 0.0 0.0 $(1000.0*dt) z 0.0 0.0 $(1000.0*dt)
fix             THERM all npt temp 300 300 0.10000000000000000555                             x 0.0 0.0 1 y 0.0 0.0 1 z 0.0 0.0 $(1000.0*dt)
fix             THERM all npt temp 300 300 0.10000000000000000555                             x 0.0 0.0 1 y 0.0 0.0 1 z 0.0 0.0 1
run             50000
PPPM initialization ...
  G vector (1/distance) = 0.27638054
  grid = 48 48 40
  stencil order = 5
  estimated absolute RMS force accuracy = 0.00014262502
  estimated relative force accuracy = 9.9047596e-06
  3d grid and FFT values/proc = 24769 9600
  update every 100 steps, delay 0 steps, check yes
Step TotEng Temp PotEng Press Pxx Pyy Pzz Fmax Lx Ly Lz
0   -95412.074            0   -95412.074   -49734.679   -85785.528   -85785.528    22367.019   0.17772471        45.93        45.93       35.508
Averages over the last 51 of 101 rows, steps 25000 to 50000:
TotEng Temp PotEng Press Pxx Pyy Pzz Fmax Lx Ly Lz
-94955.5 299.522 -95234.2 29.2888 27.9806 59.0061 0.879639 3.51588 45.0103 45.0114 36.2189
Loop time of 732.999 on 10 procs for 50000 steps with 7200 atoms

unfix           THERM

#fix             NVE all nve
#unfix           NVE

# --------------------------------------------------------------------------------------------------
# write positions for SQW calculation
# --------------------------------------------------------------------------------------------------

#dump_modify     POSITIONS sort id

dump            POSITIONS all custom 16 pos.dat id type xu yu zu
dump_modify     POSITIONS sort id

fix             SQW all npt temp 300 300 $(100.0*dt)                             x 0.0 0.0 $(1000.0*dt) y 0.0 0.0 $(1000.0*dt) z 0.0 0.0 $(1000.0*dt)
fix             SQW all npt temp 300 300 0.10000000000000000555                             x 0.0 0.0 $(1000.0*dt) y 0.0 0.0 $(1000.0*dt) z 0.0 0.0 $(1000.0*dt)
fix             SQW all npt temp 300 300 0.10000000000000000555                             x 0.0 0.0 1 y 0.0 0.0 $(1000.0*dt) z 0.0 0.0 $(1000.0*dt)
fix             SQW all npt temp 300 300 0.10000000000000000555                             x 0.0 0.0 1 y 0.0 0.0 1 z 0.0 0.0 $(1000.0*dt)
fix             SQW all npt temp 300 300 0.10000000000000000555                             x 0.0 0.0 1 y 0.0 0.0 1 z 0.0 0.0 1
run             64000
PPPM initialization ...
  G vector (1/distance) = 0.27467799
  grid = 45 45 40
  stencil order = 5
  estimated absolute RMS force accuracy = 0.00016849815
  estimated relative force accuracy = 1.1701549e-05
  3d grid and FFT values/proc = 21808 8280
Step TotEng Temp PotEng Press Pxx Pyy Pzz Fmax Lx Ly Lz
50000   -94958.561    297.50645   -95235.403   -774.36381   -2081.9273   -4.2124777   -236.95162    3.2479225    45.071158    44.969677    36.213752
Averages over the last 65 of 129 rows, steps 82000 to 114000:
TotEng Temp PotEng Press Pxx Pyy Pzz Fmax Lx Ly Lz
-94954.6 300.24 -95234 -16.6308 -117.73 -87.2049 155.043 3.50442 45.0132 45.0126 36.2167
Loop time of 913.67 on 10 procs for 64000 steps with 7200 atoms

unfix           SQW

#fix             SQW all nve
#unfix           SQW

# --------------------------------------------------------------------------------------------------
# finalize stuff
# --------------------------------------------------------------------------------------------------

undump          POSITIONS
undump          TRJ

write_data      rutile.post_sqw.pos
System init for write_data ...
PPPM initialization ...
  G vector (1/distance) = 0.27468085
  grid = 45 45 40
  stencil order = 5
  estimated absolute RMS force accuracy = 0.00016846643
  estimated relative force accuracy = 1.1699346e-05
  3d grid and FFT values/proc = 21808 8280
